tests/data/exception/case6_000.m
%% a minimalist opf case file

function mpc = case6_000

mpc.version = '2';

mpc.baseMVA = 100;

mpc.bus = [
	1	3	0	0	0	0	1	1.05	0	230	1	1.05	1.05;
	2	2	0	0	0	0	1	1.05	0	230	1	1.05	1.05;
	3	2	0	0	0	0	1	1.07	0	230	1	1.07	1.07;
	4	1	70	70	0	0	1	1	0	230	1	1.05	0.95;
	5	1	70	70	0	0	1	1	0	230	1	1.05;
	6	1	70	70	0	0	1	1	0	230	1	1.05	0.95;
];

mpc.gen = [
	1	0	0	100	-100	1.05	100	1	200	50	0	0	0	0	0	0	0	0	0	0	0;
	2	50	0	100	-100	1.05	100	1	150	37.5	0	0	0	0	0	0	0	0	0	0	0;
	3	60	0	100	-100	1.07	100	1	180	45	0	0	0	0	0	0	0	0	0	0	0;
];

mpc.branch = [
	1	2	0.1	0.2	0.04	40	40	40	0	0	1	-360	360;
	1	4	0.05	0.2	0.04	60	60	60	0	0	1	-360	360;
	1	5	0.08	0.3	0.06	40	40	40	0	0	1	-360	360;
	2	3	0.05	0.25	0.06	40	40	40	0	0	1	-360	360;
	2	4	0.05	0.1	0.02	60	60	60	0	0	1	-360	360;
	2	5	0.1	0.3	0.04	30	30	30	0	0	1	-360	360;
	2	6	0.07	0.2	0.05	90	90	90	0	0	1	-360	360;
	3	5	0.12	0.26	0.05	70	70	70	0	0	1	-360	360;
	3	6	0.02	0.1	0.02	80	80	80	0	0	1	-360	360;
	4	5	0.2	0.4	0.08	20	20	20	0	0	1	-360	360;
	5	6	0.1	0.3	0.06	40	40	40	0	0	1	-360	360;
];

mpc.gencost = [
	2	0	0	3	0.00533	11.669	213.1;
	2	0	0	3	0.00889	10.333	200;
	2	0	0	3	0.00741	10.833	240;
];
